
 ===================================================
  XFOIL Version 6.99
  Copyright (C) 2000   Mark Drela, Harold Youngren

  This software comes with ABSOLUTELY NO WARRANTY,
    subject to the GNU General Public License.

  Caveat computor
 ===================================================

 File  xfoil.def  not found

   QUIT    Exit program

  .OPER    Direct operating point(s)
  .MDES    Complex mapping design routine
  .QDES    Surface speed design routine
  .GDES    Geometry design routine

   SAVE f  Write airfoil to labeled coordinate file
   PSAV f  Write airfoil to plain coordinate file
   ISAV f  Write airfoil to ISES coordinate file
   MSAV f  Write airfoil to MSES coordinate file
   REVE    Reverse written-airfoil node ordering

   LOAD f  Read buffer airfoil from coordinate file
   NACA i  Set NACA 4,5-digit airfoil and buffer airfoil
   INTE    Set buffer airfoil by interpolating two airfoils
   NORM    Buffer airfoil normalization toggle
   XYCM rr Change CM reference location, currently  0.25000 0.00000

   BEND    Display structural properties of current airfoil

   PCOP    Set current-airfoil panel nodes directly from buffer airfoil points
   PANE    Set current-airfoil panel nodes ( 160 ) based on curvature
  .PPAR    Show/change paneling

  .PLOP    Plotting options

   WDEF f  Write  current-settings file
   RDEF f  Reread current-settings file
   NAME s  Specify new airfoil name
   NINC    Increment name version number

   Z       Zoom    | (available in all menus)
   U       Unzoom  | 

 XFOIL   c>  
 Labeled airfoil file.  Name:  xfoil                                           

 Number of input coordinate points: 127
 Counterclockwise ordering
 Max thickness =     0.117608  at x =   0.396
 Max camber    =     0.048836  at x =   0.544

  LE  x,y  =  -0.00002   0.00047  |   Chord =   1.00003
  TE  x,y  =   1.00000  -0.00503  |

 Current airfoil nodes set from buffer airfoil nodes ( 127 )

 XFOIL   c>  
 Current airfoil nodes set from buffer airfoil nodes ( 127 )

 XFOIL   c>  
 XFOIL   c>  
 Blunt trailing edge.  Gap =  0.00391

 Paneling parameters used...
   Number of panel nodes       160
   Panel bunching parameter    1.000
   TE/LE panel density ratio   0.150
   Refined-area/LE panel density ratio    0.200
   Top    side refined area x/c limits  1.000 1.000
   Bottom side refined area x/c limits  1.000 1.000

 XFOIL   c>  
 XFOIL   c>  
.OPERi   c>   Current iteration limit:          10

Enter new iteration limit   i>  
.OPERi   c>  
 XFOIL   c>  
.OPERi   c>  
 Xtr/c     =  1.0000    top    side
 Xtr/c     =  1.0000    bottom side
 Ncrit     =    9.00   ( 0.070 % turb. level )
 Vacc      =  0.0100

 Klag  =  5.6000     Uxwt  =    1.00
 A     =  6.7000     B     =  0.7500       KCt = 0.01485
 CtiniK=  1.8000     CtiniX=  3.3000

..VPAR   c>  
Enter critical amplification ratio   r>  
..VPAR   c>  
.OPERi   c>  
 XFOIL   c>  
 XFOIL   c>  
.OPERi   c>  
.OPERi   c>  
 M  =    0.0000
 Re =    100000

.OPERv   c>  
 XFOIL   c>  
 XFOIL   c>  
.OPERv   c>  
 Sonic Cp =     -1.71      Sonic Q/Qinf =     1.726


.OPERv   c>  
 Polar  1 newly created for accumulation
 Airfoil archived with polar: xfoil                                           

Enter  polar save filename  OR  <return> for no file   s>  
 Polar save file will NOT be written

Enter  polar dump filename  OR  <return> for no file   s>  
 Polar dump file will NOT be written

 Polar accumulation enabled

.OPERva   c>   Calculating unit vorticity distributions ...
 Calculating wake trajectory ...
 Calculating source influence matrix ...

 Solving BL system ...

 Initializing BL ...
    side            1  ...
 MRCHUE: Inverse mode at  53     Hk =   3.800
 MRCHUE: Inverse mode at  54     Hk =   4.084
 MRCHUE: Inverse mode at  55     Hk =   4.363
 MRCHUE: Inverse mode at  56     Hk =   4.637
 MRCHUE: Inverse mode at  57     Hk =   4.907
 MRCHUE: Inverse mode at  58     Hk =   5.173
 MRCHUE: Inverse mode at  59     Hk =   5.435
 MRCHUE: Inverse mode at  60     Hk =   5.695
 MRCHUE: Inverse mode at  61     Hk =   5.951
 MRCHUE: Inverse mode at  62     Hk =   6.205
 MRCHUE: Inverse mode at  63     Hk =   6.457
 MRCHUE: Inverse mode at  64     Hk =   6.706
 MRCHUE: Inverse mode at  65     Hk =   6.953
 MRCHUE: Inverse mode at  66     Hk =   7.198
 MRCHUE: Inverse mode at  67     Hk =   7.442
 MRCHUE: Inverse mode at  68     Hk =   7.684
 MRCHUE: Inverse mode at  69     Hk =   7.925
 MRCHUE: Inverse mode at  70     Hk =   8.165
 MRCHUE: Inverse mode at  71     Hk =   8.403
 MRCHUE: Inverse mode at  72     Hk =   8.641
 MRCHUE: Inverse mode at  73     Hk =   8.878
 MRCHUE: Inverse mode at  74     Hk =   9.114
 MRCHUE: Inverse mode at  75     Hk =   9.349
 MRCHUE: Inverse mode at  76     Hk =   9.583
 MRCHUE: Inverse mode at  77     Hk =   9.818
 MRCHUE: Inverse mode at  78     Hk =   8.913
 MRCHUE: Inverse mode at  79     Hk =   7.968
 MRCHUE: Inverse mode at  80     Hk =   7.208
 MRCHUE: Inverse mode at  81     Hk =   6.564
 MRCHUE: Inverse mode at  82     Hk =   6.015
 MRCHUE: Inverse mode at  83     Hk =   5.593
 MRCHUE: Inverse mode at  84     Hk =   5.285
 MRCHUE: Inverse mode at  85     Hk =   5.125
    side            2  ...
 MRCHUE: Inverse mode at  45     Hk =   3.800
 MRCHUE: Inverse mode at  46     Hk =   4.060
 MRCHUE: Inverse mode at  47     Hk =   4.314
 MRCHUE: Inverse mode at  48     Hk =   4.562
 MRCHUE: Inverse mode at  49     Hk =   4.804
 MRCHUE: Inverse mode at  50     Hk =   5.041
 MRCHUE: Inverse mode at  51     Hk =   5.274
 MRCHUE: Inverse mode at  52     Hk =   5.502
 MRCHUE: Inverse mode at  53     Hk =   5.727
 MRCHUE: Inverse mode at  54     Hk =   5.948
 MRCHUE: Inverse mode at  55     Hk =   6.166
 MRCHUE: Inverse mode at  56     Hk =   6.381
 MRCHUE: Inverse mode at  57     Hk =   6.593
 MRCHUE: Inverse mode at  58     Hk =   6.802
 MRCHUE: Inverse mode at  59     Hk =   7.009
 MRCHUE: Inverse mode at  60     Hk =   7.214
 MRCHUE: Inverse mode at  61     Hk =   7.417
 MRCHUE: Inverse mode at  62     Hk =   7.618
 MRCHUE: Inverse mode at  63     Hk =   7.817
 MRCHUE: Inverse mode at  64     Hk =   8.015
 MRCHUE: Inverse mode at  65     Hk =   8.211
 MRCHUE: Inverse mode at  66     Hk =   8.406
 MRCHUE: Inverse mode at  67     Hk =   8.600
 MRCHUE: Inverse mode at  68     Hk =   8.793
 MRCHUE: Inverse mode at  69     Hk =   8.986
 MRCHUE: Inverse mode at  70     Hk =   9.178
 MRCHUE: Inverse mode at  71     Hk =   9.369
 MRCHUE: Inverse mode at  72     Hk =   9.559
 MRCHUE: Inverse mode at  73     Hk =   9.748
 MRCHUE: Inverse mode at  74     Hk =   9.831
 MRCHUE: Inverse mode at  75     Hk =   9.043
 MRCHUE: Inverse mode at  76     Hk =   8.534
 MRCHUE: Inverse mode at  77     Hk =   8.289
 MRCHUE: Inverse mode at  79     Hk =   5.207
 MRCHUE: Inverse mode at  80     Hk =   4.400
 MRCHUE: Inverse mode at  81     Hk =   3.865
 MRCHUE: Inverse mode at  82     Hk =   3.483
 MRCHUE: Inverse mode at  83     Hk =   3.196

 Side 1  free  transition at x/c =  0.9062   78
 Side 2  free  transition at x/c =  0.9708   74

   1   rms: 0.5986E+00   max: -.3555E+01   T at   74  2   RLX: 0.141
       a =  2.000      CL =  1.3324
      Cm = -0.3048     CD =  0.00951   =>   CDf =  0.00778    CDp =  0.00173

 Side 1  free  transition at x/c =  0.8896   77
 Side 2 forced transition at x/c =  1.0000   77

   2   rms: 0.8003E+00   max: 0.3582E+01   T at   77  1   RLX: 0.168
       a =  2.000      CL =  1.1883
      Cm = -0.2729     CD =  0.01058   =>   CDf =  0.00779    CDp =  0.00279

 Side 1  free  transition at x/c =  0.8684   75
 Side 2 forced transition at x/c =  1.0000   77
 idif Ue xi dudx           1  0.27849191      1.89757347E-03   146.76213    
 Uenew xinew           2  1.03397872E-02  7.04526901E-05

   3   rms: 0.1408E+01   max: -.1428E+02   C at   77  2   RLX: 0.035
       a =  2.000      CL =  1.1380
      Cm = -0.2645     CD =  0.01026   =>   CDf =  0.00818    CDp =  0.00208

 Side 1  free  transition at x/c =  0.8611   73
 Side 2 forced transition at x/c =  1.0000   78

   4   rms: 0.2031E+01   max: -.2493E+02   T at    2  2   RLX: 0.020
       a =  2.000      CL =  1.1048
      Cm = -0.2571     CD =  0.01077   =>   CDf =  0.00809    CDp =  0.00267

 Side 1  free  transition at x/c =  0.8566   73
 Side 2 forced transition at x/c =  1.0000   78

   5   rms: 0.5727E+00   max: -.6105E+01   C at   78  2   RLX: 0.082
       a =  2.000      CL =  1.0633
      Cm = -0.2464     CD =  0.01204   =>   CDf =  0.00814    CDp =  0.00390

 Side 1  free  transition at x/c =  0.8490   73
 Side 2 forced transition at x/c =  1.0000   78

   6   rms: 0.3806E+00   max: -.3106E+01   C at   78  2   RLX: 0.161
       a =  2.000      CL =  1.0316
      Cm = -0.2342     CD =  0.01488   =>   CDf =  0.00821    CDp =  0.00667

 Side 1  free  transition at x/c =  0.8424   72
 Side 2 forced transition at x/c =  1.0000   78

   7   rms: 0.5474E+00   max: -.5176E+01   C at   78  2   RLX: 0.097
       a =  2.000      CL =  0.9848
      Cm = -0.2250     CD =  0.01599   =>   CDf =  0.00826    CDp =  0.00773

 Side 1  free  transition at x/c =  0.8327   71
 Side 2 forced transition at x/c =  1.0000   78

   8   rms: 0.6653E+00   max: -.5563E+01   C at   78  2   RLX: 0.090
       a =  2.000      CL =  0.9227
      Cm = -0.2124     CD =  0.01850   =>   CDf =  0.00830    CDp =  0.01021

 Side 1  free  transition at x/c =  0.8213   71
 Side 2 forced transition at x/c =  1.0000   78

   9   rms: 0.2239E+00   max: -.1278E+01   C at   78  2   RLX: 0.391
       a =  2.000      CL =  0.8687
      Cm = -0.1911     CD =  0.02647   =>   CDf =  0.00833    CDp =  0.01814

 Side 1  free  transition at x/c =  0.8101   70
 Side 2 forced transition at x/c =  1.0000   78
 idif Ue xi dudx           1  0.37162778      1.83022022E-03   203.05086    
 Uenew xinew           2  4.02296223E-02  1.98125839E-04

  10   rms: 0.2624E+00   max: 0.1700E+01   T at   70  1   RLX: 0.403
       a =  2.000      CL =  0.7652
      Cm = -0.1707     CD =  0.03151   =>   CDf =  0.00854    CDp =  0.02297

 Side 1  free  transition at x/c =  0.7916   67
 Side 2 forced transition at x/c =  1.0000   79

  11   rms: 0.6299E+00   max: 0.4965E+01   T at   67  1   RLX: 0.158
       a =  2.000      CL =  0.6588
      Cm = -0.1545     CD =  0.03606   =>   CDf =  0.00828    CDp =  0.02778

 Side 1  free  transition at x/c =  0.7756   66
 Side 2 forced transition at x/c =  1.0000   79

  12   rms: 0.1288E+00   max: 0.1274E+01   T at   66  1   RLX: 0.677
       a =  2.000      CL =  0.5473
      Cm = -0.1298     CD =  0.04476   =>   CDf =  0.00818    CDp =  0.03658

 Side 1  free  transition at x/c =  0.7583   65
 Side 2 forced transition at x/c =  1.0000   79

  13   rms: 0.6228E-01   max: -.3248E+00   D at   68  1
       a =  2.000      CL =  0.5681
      Cm = -0.1288     CD =  0.04630   =>   CDf =  0.00798    CDp =  0.03832

 Side 1  free  transition at x/c =  0.7582   65
 Side 2 forced transition at x/c =  1.0000   79

  14   rms: 0.2314E-01   max: -.7617E-01   D at   93  2
       a =  2.000      CL =  0.5951
      Cm = -0.1326     CD =  0.04545   =>   CDf =  0.00798    CDp =  0.03747

 Side 1  free  transition at x/c =  0.7620   65
 Side 2 forced transition at x/c =  1.0000   79

  15   rms: 0.1857E-01   max: -.1206E+00   T at   65  1
       a =  2.000      CL =  0.6146
      Cm = -0.1351     CD =  0.04515   =>   CDf =  0.00803    CDp =  0.03712

 Side 1  free  transition at x/c =  0.7649   66
 Side 2 forced transition at x/c =  1.0000   79

  16   rms: 0.1324E-01   max: 0.5603E-01   D at   66  1
       a =  2.000      CL =  0.6098
      Cm = -0.1346     CD =  0.04545   =>   CDf =  0.00806    CDp =  0.03739

 Side 1  free  transition at x/c =  0.7641   66
 Side 2 forced transition at x/c =  1.0000   79

  17   rms: 0.4482E-03   max: -.3044E-02   D at   92  2
       a =  2.000      CL =  0.6097
      Cm = -0.1346     CD =  0.04533   =>   CDf =  0.00805    CDp =  0.03728

 Side 1  free  transition at x/c =  0.7641   66
 Side 2 forced transition at x/c =  1.0000   79

  18   rms: 0.1335E-04   max: -.7533E-04   D at   89  2
       a =  2.000      CL =  0.6097
      Cm = -0.1346     CD =  0.04533   =>   CDf =  0.00805    CDp =  0.03728
 plradd ia,ip,cpol            1          82  0.29693687    

 Point added to stored polar  1
 Save file unspecified or not available
 Dump file unspecified or not available

.OPERva   c>  
        airfoil                    Re           Mach       Ncrit  XtripT  XtripB     file
       ------------------------  ------------  ----------  -----  ------  ------    -------------------
 >  1  xfoil                     1.000e5       0.544        9.00   1.000   1.000    

Enter polar output filename   s>  
.OPERva   c>  
 ==============================================================
 Polar  1
  
       XFOIL         Version 6.99
  
 Calculated polar for: xfoil                                           
  
 1 1 Reynolds number fixed          Mach number fixed         
  
 xtrf =   1.000 (top)        1.000 (bottom)  
 Mach =   0.544     Re =     0.100 e 6     Ncrit =   9.000
  
   alpha    CL        CD       CDp       CM     Top_Xtr  Bot_Xtr
  ------ -------- --------- --------- -------- -------- --------
   2.000   0.6097   0.04533   0.03728  -0.1346   0.7641   1.0000

.OPERva   c>  
 Polar accumulation disabled

.OPERv   c>  
 XFOIL   c>  
 XFOIL   c>  
 XFOIL   c>  
 XFOIL   c>  
.OPERv   c>  
 Sonic Cp =     -2.35      Sonic Q/Qinf =     1.940


.OPERv   c>  
 Polar  2 newly created for accumulation
 Airfoil archived with polar: xfoil                                           

Enter  polar save filename  OR  <return> for no file   s>  
 Polar save file will NOT be written

Enter  polar dump filename  OR  <return> for no file   s>  
 Polar dump file will NOT be written

 Polar accumulation enabled

.OPERva   c>  
 Solving BL system ...

 Side 1  free  transition at x/c =  0.7624   65
 Side 2 forced transition at x/c =  1.0000   79

   1   rms: 0.2571E+01   max: -.2066E+02   T at   65  1   RLX: 0.024
       a =  2.000      CL =  0.6269
      Cm = -0.1300     CD =  0.04441   =>   CDf =  0.00794    CDp =  0.03646

 Side 1  free  transition at x/c =  0.7751   66
 Side 2 forced transition at x/c =  1.0000   79

   2   rms: 0.9541E-01   max: 0.4124E+00   D at   67  1
       a =  2.000      CL =  0.5957
      Cm = -0.1314     CD =  0.04531   =>   CDf =  0.00803    CDp =  0.03728

 Side 1  free  transition at x/c =  0.7745   66
 Side 2 forced transition at x/c =  1.0000   79

   3   rms: 0.1026E-01   max: -.7256E-01   T at   66  1
       a =  2.000      CL =  0.6049
      Cm = -0.1323     CD =  0.04351   =>   CDf =  0.00809    CDp =  0.03543

 Side 1  free  transition at x/c =  0.7764   66
 Side 2 forced transition at x/c =  1.0000   79

   4   rms: 0.1417E-01   max: -.1017E+00   T at   66  1
       a =  2.000      CL =  0.6192
      Cm = -0.1341     CD =  0.04318   =>   CDf =  0.00809    CDp =  0.03509

 Side 1  free  transition at x/c =  0.7787   67
 Side 2 forced transition at x/c =  1.0000   79

   5   rms: 0.1402E-01   max: 0.5613E-01   D at   68  1
       a =  2.000      CL =  0.6139
      Cm = -0.1335     CD =  0.04346   =>   CDf =  0.00811    CDp =  0.03535

 Side 1  free  transition at x/c =  0.7778   67
 Side 2 forced transition at x/c =  1.0000   79

   6   rms: 0.5863E-03   max: -.3941E-02   D at   67  1
       a =  2.000      CL =  0.6138
      Cm = -0.1335     CD =  0.04335   =>   CDf =  0.00810    CDp =  0.03525

 Side 1  free  transition at x/c =  0.7778   67
 Side 2 forced transition at x/c =  1.0000   79

   7   rms: 0.1809E-04   max: -.1116E-03   T at   67  1
       a =  2.000      CL =  0.6139
      Cm = -0.1335     CD =  0.04336   =>   CDf =  0.00810    CDp =  0.03526
 plradd ia,ip,cpol            1          82  0.29693687    

 Point added to stored polar  2
 Save file unspecified or not available
 Dump file unspecified or not available

.OPERva   c>  
        airfoil                    Re           Mach       Ncrit  XtripT  XtripB     file
       ------------------------  ------------  ----------  -----  ------  ------    -------------------
    1  xfoil                     1.000e5       0.544        9.00   1.000   1.000    xfoil_1_pwrt.dat
 >  2  xfoil                     1.000e5       0.481        9.00   1.000   1.000    

Enter index of polar to write (0=all, -1=abort)   i>  
        airfoil                    Re           Mach       Ncrit  XtripT  XtripB     file
       ------------------------  ------------  ----------  -----  ------  ------    -------------------
 >  2  xfoil                     1.000e5       0.481        9.00   1.000   1.000    

Enter polar output filename   s>  
.OPERva   c>  
 ==============================================================
 Polar  1
  
       XFOIL         Version 6.99
  
 Calculated polar for: xfoil                                           
  
 1 1 Reynolds number fixed          Mach number fixed         
  
 xtrf =   1.000 (top)        1.000 (bottom)  
 Mach =   0.544     Re =     0.100 e 6     Ncrit =   9.000
  
   alpha    CL        CD       CDp       CM     Top_Xtr  Bot_Xtr
  ------ -------- --------- --------- -------- -------- --------
   2.000   0.6097   0.04533   0.03728  -0.1346   0.7641   1.0000

 ==============================================================
 Polar  2
  
       XFOIL         Version 6.99
  
 Calculated polar for: xfoil                                           
  
 1 1 Reynolds number fixed          Mach number fixed         
  
 xtrf =   1.000 (top)        1.000 (bottom)  
 Mach =   0.481     Re =     0.100 e 6     Ncrit =   9.000
  
   alpha    CL        CD       CDp       CM     Top_Xtr  Bot_Xtr
  ------ -------- --------- --------- -------- -------- --------
   2.000   0.6139   0.04336   0.03526  -0.1335   0.7778   1.0000

.OPERva   c>  
 Polar accumulation disabled

.OPERv   c>  
 XFOIL   c>  
 XFOIL   c>  
 XFOIL   c>  
 XFOIL   c>  
.OPERv   c>  
 Sonic Cp =     -1.02      Sonic Q/Qinf =     1.466


.OPERv   c>  
 Polar  3 newly created for accumulation
 Airfoil archived with polar: xfoil                                           

Enter  polar save filename  OR  <return> for no file   s>  
 Polar save file will NOT be written

Enter  polar dump filename  OR  <return> for no file   s>  
 Polar dump file will NOT be written

 Polar accumulation enabled

.OPERva   c>  
 Solving BL system ...

 Side 1  free  transition at x/c =  0.7848   67
 Side 2 forced transition at x/c =  1.0000   79

   1   rms: 0.1344E+00   max: 0.1178E+01   T at   67  1   RLX: 0.691
       a =  2.000      CL =  0.7073
      Cm = -0.1582     CD =  0.04604   =>   CDf =  0.00848    CDp =  0.03756

 Side 1  free  transition at x/c =  0.7611   65
 Side 2 forced transition at x/c =  1.0000   79
 idif Ue xi dudx           1  0.35211459      1.88970566E-03   186.33304    
 Uenew xinew           2  5.78194745E-02  3.10301781E-04

   2   rms: 0.2831E+00   max: 0.2269E+01   T at   65  1   RLX: 0.387
       a =  2.000      CL =  0.5799
      Cm = -0.1424     CD =  0.04709   =>   CDf =  0.00836    CDp =  0.03873

 Side 1  free  transition at x/c =  0.7415   63
 Side 2 forced transition at x/c =  1.0000   80

   3   rms: 0.3969E-01   max: 0.4035E+00   T at   63  1
       a =  2.000      CL =  0.5654
      Cm = -0.1331     CD =  0.04998   =>   CDf =  0.00794    CDp =  0.04204

 Side 1  free  transition at x/c =  0.7327   62
 Side 2 forced transition at x/c =  1.0000   80

   4   rms: 0.3643E-01   max: -.1147E+00   D at   95  2
       a =  2.000      CL =  0.6041
      Cm = -0.1378     CD =  0.04953   =>   CDf =  0.00773    CDp =  0.04179

 Side 1  free  transition at x/c =  0.7378   64
 Side 2 forced transition at x/c =  1.0000   79
 idif Ue xi dudx           1  0.31121156      1.59418583E-03   195.21661    
 Uenew xinew           2  2.88568251E-03  1.47819519E-05

   5   rms: 0.2538E-01   max: 0.3003E+00   T at    2  1
       a =  2.000      CL =  0.5965
      Cm = -0.1371     CD =  0.05010   =>   CDf =  0.00807    CDp =  0.04203

 Side 1  free  transition at x/c =  0.7364   63
 Side 2 forced transition at x/c =  1.0000   80

   6   rms: 0.4984E-02   max: 0.7654E-01   T at    2  2
       a =  2.000      CL =  0.5964
      Cm = -0.1370     CD =  0.04986   =>   CDf =  0.00790    CDp =  0.04196

 Side 1  free  transition at x/c =  0.7364   63
 Side 2 forced transition at x/c =  1.0000   80

   7   rms: 0.1490E-02   max: -.1543E-01   D at    4  2
       a =  2.000      CL =  0.5964
      Cm = -0.1370     CD =  0.04987   =>   CDf =  0.00790    CDp =  0.04197

 Side 1  free  transition at x/c =  0.7364   63
 Side 2 forced transition at x/c =  1.0000   80

   8   rms: 0.7397E-05   max: -.1107E-03   D at    5  2
       a =  2.000      CL =  0.5964
      Cm = -0.1370     CD =  0.04987   =>   CDf =  0.00790    CDp =  0.04197
 plradd ia,ip,cpol            1          81  0.28283262    

 Point added to stored polar  3
 Save file unspecified or not available
 Dump file unspecified or not available

.OPERva   c>  
        airfoil                    Re           Mach       Ncrit  XtripT  XtripB     file
       ------------------------  ------------  ----------  -----  ------  ------    -------------------
    1  xfoil                     1.000e5       0.544        9.00   1.000   1.000    xfoil_1_pwrt.dat
    2  xfoil                     1.000e5       0.481        9.00   1.000   1.000    xfoil_2_pwrt.dat
 >  3  xfoil                     1.000e5       0.648        9.00   1.000   1.000    

Enter index of polar to write (0=all, -1=abort)   i>  
        airfoil                    Re           Mach       Ncrit  XtripT  XtripB     file
       ------------------------  ------------  ----------  -----  ------  ------    -------------------
 >  3  xfoil                     1.000e5       0.648        9.00   1.000   1.000    

Enter polar output filename   s>  
.OPERva   c>  
 ==============================================================
 Polar  1
  
       XFOIL         Version 6.99
  
 Calculated polar for: xfoil                                           
  
 1 1 Reynolds number fixed          Mach number fixed         
  
 xtrf =   1.000 (top)        1.000 (bottom)  
 Mach =   0.544     Re =     0.100 e 6     Ncrit =   9.000
  
   alpha    CL        CD       CDp       CM     Top_Xtr  Bot_Xtr
  ------ -------- --------- --------- -------- -------- --------
   2.000   0.6097   0.04533   0.03728  -0.1346   0.7641   1.0000

 ==============================================================
 Polar  2
  
       XFOIL         Version 6.99
  
 Calculated polar for: xfoil                                           
  
 1 1 Reynolds number fixed          Mach number fixed         
  
 xtrf =   1.000 (top)        1.000 (bottom)  
 Mach =   0.481     Re =     0.100 e 6     Ncrit =   9.000
  
   alpha    CL        CD       CDp       CM     Top_Xtr  Bot_Xtr
  ------ -------- --------- --------- -------- -------- --------
   2.000   0.6139   0.04336   0.03526  -0.1335   0.7778   1.0000

 ==============================================================
 Polar  3
  
       XFOIL         Version 6.99
  
 Calculated polar for: xfoil                                           
  
 1 1 Reynolds number fixed          Mach number fixed         
  
 xtrf =   1.000 (top)        1.000 (bottom)  
 Mach =   0.648     Re =     0.100 e 6     Ncrit =   9.000
  
   alpha    CL        CD       CDp       CM     Top_Xtr  Bot_Xtr
  ------ -------- --------- --------- -------- -------- --------
   2.000   0.5964   0.04987   0.04197  -0.1370   0.7364   1.0000

.OPERva   c>  
 Polar accumulation disabled

.OPERv   c>  
 XFOIL   c>  
 XFOIL   c>  
 XFOIL   c>  
 XFOIL   c>  
.OPERv   c>  
 Sonic Cp =     -1.91      Sonic Q/Qinf =     1.796


.OPERv   c>  
 Polar  4 newly created for accumulation
 Airfoil archived with polar: xfoil                                           

Enter  polar save filename  OR  <return> for no file   s>  
 Polar save file will NOT be written

Enter  polar dump filename  OR  <return> for no file   s>  
 Polar dump file will NOT be written

 Polar accumulation enabled

.OPERva   c>  
 Solving BL system ...

 Side 1  free  transition at x/c =  0.7310   62
 Side 2 forced transition at x/c =  1.0000   80

   1   rms: 0.2840E+00   max: -.2720E+01   T at   62  1   RLX: 0.184
       a =  2.000      CL =  0.5421
      Cm = -0.1147     CD =  0.04884   =>   CDf =  0.00753    CDp =  0.04132

 Side 1  free  transition at x/c =  0.7457   64
 Side 2 forced transition at x/c =  1.0000   79

   2   rms: 0.9382E-01   max: -.1028E+01   T at   64  1   RLX: 0.486
       a =  2.000      CL =  0.5950
      Cm = -0.1262     CD =  0.04348   =>   CDf =  0.00778    CDp =  0.03570

 Side 1  free  transition at x/c =  0.7622   65
 Side 2 forced transition at x/c =  1.0000   79

   3   rms: 0.5062E-01   max: -.4186E+00   T at   65  1
       a =  2.000      CL =  0.6416
      Cm = -0.1379     CD =  0.04390   =>   CDf =  0.00797    CDp =  0.03594

 Side 1  free  transition at x/c =  0.7756   66
 Side 2 forced transition at x/c =  1.0000   79

   4   rms: 0.8444E-01   max: 0.4009E+00   D at   66  1
       a =  2.000      CL =  0.5837
      Cm = -0.1309     CD =  0.04643   =>   CDf =  0.00812    CDp =  0.03831

 Side 1  free  transition at x/c =  0.7649   66
 Side 2 forced transition at x/c =  1.0000   79

   5   rms: 0.1836E-01   max: -.8040E-01   D at   93  2
       a =  2.000      CL =  0.5960
      Cm = -0.1321     CD =  0.04469   =>   CDf =  0.00803    CDp =  0.03666

 Side 1  free  transition at x/c =  0.7666   66
 Side 2 forced transition at x/c =  1.0000   79

   6   rms: 0.1931E-02   max: -.7228E-02   D at   93  2
       a =  2.000      CL =  0.5975
      Cm = -0.1324     CD =  0.04481   =>   CDf =  0.00805    CDp =  0.03676

 Side 1  free  transition at x/c =  0.7668   66
 Side 2 forced transition at x/c =  1.0000   79

   7   rms: 0.8096E-04   max: -.3769E-03   D at   89  2
       a =  2.000      CL =  0.5976
      Cm = -0.1324     CD =  0.04482   =>   CDf =  0.00805    CDp =  0.03677
 plradd ia,ip,cpol            1          82  0.29693687    

 Point added to stored polar  4
 Save file unspecified or not available
 Dump file unspecified or not available

.OPERva   c>  
        airfoil                    Re           Mach       Ncrit  XtripT  XtripB     file
       ------------------------  ------------  ----------  -----  ------  ------    -------------------
    1  xfoil                     1.000e5       0.544        9.00   1.000   1.000    xfoil_1_pwrt.dat
    2  xfoil                     1.000e5       0.481        9.00   1.000   1.000    xfoil_2_pwrt.dat
    3  xfoil                     1.000e5       0.648        9.00   1.000   1.000    xfoil_3_pwrt.dat
 >  4  xfoil                     1.000e5       0.522        9.00   1.000   1.000    

Enter index of polar to write (0=all, -1=abort)   i>  
        airfoil                    Re           Mach       Ncrit  XtripT  XtripB     file
       ------------------------  ------------  ----------  -----  ------  ------    -------------------
 >  4  xfoil                     1.000e5       0.522        9.00   1.000   1.000    

Enter polar output filename   s>  
.OPERva   c>  
 ==============================================================
 Polar  1
  
       XFOIL         Version 6.99
  
 Calculated polar for: xfoil                                           
  
 1 1 Reynolds number fixed          Mach number fixed         
  
 xtrf =   1.000 (top)        1.000 (bottom)  
 Mach =   0.544     Re =     0.100 e 6     Ncrit =   9.000
  
   alpha    CL        CD       CDp       CM     Top_Xtr  Bot_Xtr
  ------ -------- --------- --------- -------- -------- --------
   2.000   0.6097   0.04533   0.03728  -0.1346   0.7641   1.0000

 ==============================================================
 Polar  2
  
       XFOIL         Version 6.99
  
 Calculated polar for: xfoil                                           
  
 1 1 Reynolds number fixed          Mach number fixed         
  
 xtrf =   1.000 (top)        1.000 (bottom)  
 Mach =   0.481     Re =     0.100 e 6     Ncrit =   9.000
  
   alpha    CL        CD       CDp       CM     Top_Xtr  Bot_Xtr
  ------ -------- --------- --------- -------- -------- --------
   2.000   0.6139   0.04336   0.03526  -0.1335   0.7778   1.0000

 ==============================================================
 Polar  3
  
       XFOIL         Version 6.99
  
 Calculated polar for: xfoil                                           
  
 1 1 Reynolds number fixed          Mach number fixed         
  
 xtrf =   1.000 (top)        1.000 (bottom)  
 Mach =   0.648     Re =     0.100 e 6     Ncrit =   9.000
  
   alpha    CL        CD       CDp       CM     Top_Xtr  Bot_Xtr
  ------ -------- --------- --------- -------- -------- --------
   2.000   0.5964   0.04987   0.04197  -0.1370   0.7364   1.0000

 ==============================================================
 Polar  4
  
       XFOIL         Version 6.99
  
 Calculated polar for: xfoil                                           
  
 1 1 Reynolds number fixed          Mach number fixed         
  
 xtrf =   1.000 (top)        1.000 (bottom)  
 Mach =   0.522     Re =     0.100 e 6     Ncrit =   9.000
  
   alpha    CL        CD       CDp       CM     Top_Xtr  Bot_Xtr
  ------ -------- --------- --------- -------- -------- --------
   2.000   0.5976   0.04482   0.03677  -0.1324   0.7668   1.0000

.OPERva   c>  
 Polar accumulation disabled

.OPERv   c>  
 XFOIL   c>  
 XFOIL   c>  
 XFOIL   c>  
 XFOIL   c>  
.OPERv   c>  
 Sonic Cp =     -4.32      Sonic Q/Qinf =     2.488


.OPERv   c>  
 Polar  5 newly created for accumulation
 Airfoil archived with polar: xfoil                                           

Enter  polar save filename  OR  <return> for no file   s>  
 Polar save file will NOT be written

Enter  polar dump filename  OR  <return> for no file   s>  
 Polar dump file will NOT be written

 Polar accumulation enabled

.OPERva   c>  
 Solving BL system ...

 Side 1  free  transition at x/c =  0.7632   65
 Side 2 forced transition at x/c =  1.0000   79
 idif Ue xi dudx           1  0.34701565      1.85263157E-03   187.30959    
 Uenew xinew           2  5.11781648E-02  2.73227692E-04

   1   rms: 0.1385E+01   max: 0.1116E+02   T at   65  1   RLX: 0.074
       a =  2.000      CL =  0.4254
      Cm = -0.0993     CD =  0.04857   =>   CDf =  0.00800    CDp =  0.04057

 Side 1  free  transition at x/c =  0.7495   63
 Side 2 forced transition at x/c =  1.0000   80

   2   rms: 0.3288E+01   max: -.2908E+02   T at   63  1   RLX: 0.017
       a =  2.000      CL =  0.4642
      Cm = -0.1003     CD =  0.05865   =>   CDf =  0.00762    CDp =  0.05103

 Side 1  free  transition at x/c =  0.7586   65
 Side 2 forced transition at x/c =  1.0000   79

   3   rms: 0.1165E+00   max: -.1324E+01   T at    2  1   RLX: 0.378
       a =  2.000      CL =  0.4982
      Cm = -0.1097     CD =  0.04645   =>   CDf =  0.00782    CDp =  0.03863

 Side 1  free  transition at x/c =  0.7686   66
 Side 2 forced transition at x/c =  1.0000   79

   4   rms: 0.7253E-01   max: -.6334E+00   T at   66  1   RLX: 0.789
       a =  2.000      CL =  0.5493
      Cm = -0.1213     CD =  0.04334   =>   CDf =  0.00791    CDp =  0.03543

 Side 1  free  transition at x/c =  0.7839   67
 Side 2 forced transition at x/c =  1.0000   79

   5   rms: 0.4105E-01   max: -.2555E+00   T at   67  1
       a =  2.000      CL =  0.5889
      Cm = -0.1281     CD =  0.04132   =>   CDf =  0.00805    CDp =  0.03326

 Side 1  free  transition at x/c =  0.7918   68
 Side 2 forced transition at x/c =  1.0000   79

   6   rms: 0.1726E-01   max: -.8016E-01   T at   68  1
       a =  2.000      CL =  0.6005
      Cm = -0.1297     CD =  0.04107   =>   CDf =  0.00812    CDp =  0.03295

 Side 1  free  transition at x/c =  0.7937   68
 Side 2 forced transition at x/c =  1.0000   79

   7   rms: 0.2142E-02   max: -.9488E-02   T at   68  1
       a =  2.000      CL =  0.6019
      Cm = -0.1300     CD =  0.04113   =>   CDf =  0.00813    CDp =  0.03300

 Side 1  free  transition at x/c =  0.7939   68
 Side 2 forced transition at x/c =  1.0000   79

   8   rms: 0.8883E-04   max: -.4819E-03   T at   68  1
       a =  2.000      CL =  0.6020
      Cm = -0.1300     CD =  0.04114   =>   CDf =  0.00813    CDp =  0.03301
 plradd ia,ip,cpol            1          82  0.29693687    

 Point added to stored polar  5
 Save file unspecified or not available
 Dump file unspecified or not available

.OPERva   c>  
        airfoil                    Re           Mach       Ncrit  XtripT  XtripB     file
       ------------------------  ------------  ----------  -----  ------  ------    -------------------
    1  xfoil                     1.000e5       0.544        9.00   1.000   1.000    xfoil_1_pwrt.dat
    2  xfoil                     1.000e5       0.481        9.00   1.000   1.000    xfoil_2_pwrt.dat
    3  xfoil                     1.000e5       0.648        9.00   1.000   1.000    xfoil_3_pwrt.dat
    4  xfoil                     1.000e5       0.522        9.00   1.000   1.000    xfoil_4_pwrt.dat
 >  5  xfoil                     1.000e5       0.372        9.00   1.000   1.000    

Enter index of polar to write (0=all, -1=abort)   i>  
        airfoil                    Re           Mach       Ncrit  XtripT  XtripB     file
       ------------------------  ------------  ----------  -----  ------  ------    -------------------
 >  5  xfoil                     1.000e5       0.372        9.00   1.000   1.000    

Enter polar output filename   s>  
.OPERva   c>  
 ==============================================================
 Polar  1
  
       XFOIL         Version 6.99
  
 Calculated polar for: xfoil                                           
  
 1 1 Reynolds number fixed          Mach number fixed         
  
 xtrf =   1.000 (top)        1.000 (bottom)  
 Mach =   0.544     Re =     0.100 e 6     Ncrit =   9.000
  
   alpha    CL        CD       CDp       CM     Top_Xtr  Bot_Xtr
  ------ -------- --------- --------- -------- -------- --------
   2.000   0.6097   0.04533   0.03728  -0.1346   0.7641   1.0000

 ==============================================================
 Polar  2
  
       XFOIL         Version 6.99
  
 Calculated polar for: xfoil                                           
  
 1 1 Reynolds number fixed          Mach number fixed         
  
 xtrf =   1.000 (top)        1.000 (bottom)  
 Mach =   0.481     Re =     0.100 e 6     Ncrit =   9.000
  
   alpha    CL        CD       CDp       CM     Top_Xtr  Bot_Xtr
  ------ -------- --------- --------- -------- -------- --------
   2.000   0.6139   0.04336   0.03526  -0.1335   0.7778   1.0000

 ==============================================================
 Polar  3
  
       XFOIL         Version 6.99
  
 Calculated polar for: xfoil                                           
  
 1 1 Reynolds number fixed          Mach number fixed         
  
 xtrf =   1.000 (top)        1.000 (bottom)  
 Mach =   0.648     Re =     0.100 e 6     Ncrit =   9.000
  
   alpha    CL        CD       CDp       CM     Top_Xtr  Bot_Xtr
  ------ -------- --------- --------- -------- -------- --------
   2.000   0.5964   0.04987   0.04197  -0.1370   0.7364   1.0000

 ==============================================================
 Polar  4
  
       XFOIL         Version 6.99
  
 Calculated polar for: xfoil                                           
  
 1 1 Reynolds number fixed          Mach number fixed         
  
 xtrf =   1.000 (top)        1.000 (bottom)  
 Mach =   0.522     Re =     0.100 e 6     Ncrit =   9.000
  
   alpha    CL        CD       CDp       CM     Top_Xtr  Bot_Xtr
  ------ -------- --------- --------- -------- -------- --------
   2.000   0.5976   0.04482   0.03677  -0.1324   0.7668   1.0000

 ==============================================================
 Polar  5
  
       XFOIL         Version 6.99
  
 Calculated polar for: xfoil                                           
  
 1 1 Reynolds number fixed          Mach number fixed         
  
 xtrf =   1.000 (top)        1.000 (bottom)  
 Mach =   0.372     Re =     0.100 e 6     Ncrit =   9.000
  
   alpha    CL        CD       CDp       CM     Top_Xtr  Bot_Xtr
  ------ -------- --------- --------- -------- -------- --------
   2.000   0.6020   0.04114   0.03301  -0.1300   0.7939   1.0000

.OPERva   c>  
 Polar accumulation disabled

.OPERv   c>  
 XFOIL   c>  
 XFOIL   c>  
 XFOIL   c>  
 XFOIL   c>  
.OPERv   c>  
 Sonic Cp =     -3.43      Sonic Q/Qinf =     2.257


.OPERv   c>  
 Polar  6 newly created for accumulation
 Airfoil archived with polar: xfoil                                           

Enter  polar save filename  OR  <return> for no file   s>  
 Polar save file will NOT be written

Enter  polar dump filename  OR  <return> for no file   s>  
 Polar dump file will NOT be written

 Polar accumulation enabled

.OPERva   c>  
 Solving BL system ...

 Side 1  free  transition at x/c =  0.7946   68
 Side 2 forced transition at x/c =  1.0000   79

   1   rms: 0.1554E-01   max: 0.1691E+00   T at   68  1
       a =  2.000      CL =  0.6153
      Cm = -0.1324     CD =  0.04164   =>   CDf =  0.00818    CDp =  0.03346

 Side 1  free  transition at x/c =  0.7907   67
 Side 2 forced transition at x/c =  1.0000   79

   2   rms: 0.6125E-01   max: -.4776E+00   T at   67  1
       a =  2.000      CL =  0.6751
      Cm = -0.1404     CD =  0.04021   =>   CDf =  0.00814    CDp =  0.03207

 Side 1  free  transition at x/c =  0.8026   68
 Side 2 forced transition at x/c =  1.0000   79

   3   rms: 0.1484E+00   max: 0.5716E+00   D at   68  1
       a =  2.000      CL =  0.5872
      Cm = -0.1289     CD =  0.04462   =>   CDf =  0.00820    CDp =  0.03642

 Side 1  free  transition at x/c =  0.7873   67
 Side 2 forced transition at x/c =  1.0000   79

   4   rms: 0.1819E-01   max: -.1614E+00   D at   67  1
       a =  2.000      CL =  0.5980
      Cm = -0.1300     CD =  0.04192   =>   CDf =  0.00812    CDp =  0.03380

 Side 1  free  transition at x/c =  0.7875   67
 Side 2 forced transition at x/c =  1.0000   79

   5   rms: 0.1958E-02   max: 0.1426E-01   D at   88  2
       a =  2.000      CL =  0.5964
      Cm = -0.1298     CD =  0.04205   =>   CDf =  0.00812    CDp =  0.03394

 Side 1  free  transition at x/c =  0.7871   67
 Side 2 forced transition at x/c =  1.0000   79

   6   rms: 0.5239E-04   max: 0.2907E-03   D at   88  2
       a =  2.000      CL =  0.5964
      Cm = -0.1298     CD =  0.04204   =>   CDf =  0.00811    CDp =  0.03393
 plradd ia,ip,cpol            1          82  0.29693687    

 Point added to stored polar  6
 Save file unspecified or not available
 Dump file unspecified or not available

.OPERva   c>  
        airfoil                    Re           Mach       Ncrit  XtripT  XtripB     file
       ------------------------  ------------  ----------  -----  ------  ------    -------------------
    1  xfoil                     1.000e5       0.544        9.00   1.000   1.000    xfoil_1_pwrt.dat
    2  xfoil                     1.000e5       0.481        9.00   1.000   1.000    xfoil_2_pwrt.dat
    3  xfoil                     1.000e5       0.648        9.00   1.000   1.000    xfoil_3_pwrt.dat
    4  xfoil                     1.000e5       0.522        9.00   1.000   1.000    xfoil_4_pwrt.dat
    5  xfoil                     1.000e5       0.372        9.00   1.000   1.000    xfoil_5_pwrt.dat
 >  6  xfoil                     1.000e5       0.411        9.00   1.000   1.000    

Enter index of polar to write (0=all, -1=abort)   i>  
        airfoil                    Re           Mach       Ncrit  XtripT  XtripB     file
       ------------------------  ------------  ----------  -----  ------  ------    -------------------
 >  6  xfoil                     1.000e5       0.411        9.00   1.000   1.000    

Enter polar output filename   s>  
.OPERva   c>  
 ==============================================================
 Polar  1
  
       XFOIL         Version 6.99
  
 Calculated polar for: xfoil                                           
  
 1 1 Reynolds number fixed          Mach number fixed         
  
 xtrf =   1.000 (top)        1.000 (bottom)  
 Mach =   0.544     Re =     0.100 e 6     Ncrit =   9.000
  
   alpha    CL        CD       CDp       CM     Top_Xtr  Bot_Xtr
  ------ -------- --------- --------- -------- -------- --------
   2.000   0.6097   0.04533   0.03728  -0.1346   0.7641   1.0000

 ==============================================================
 Polar  2
  
       XFOIL         Version 6.99
  
 Calculated polar for: xfoil                                           
  
 1 1 Reynolds number fixed          Mach number fixed         
  
 xtrf =   1.000 (top)        1.000 (bottom)  
 Mach =   0.481     Re =     0.100 e 6     Ncrit =   9.000
  
   alpha    CL        CD       CDp       CM     Top_Xtr  Bot_Xtr
  ------ -------- --------- --------- -------- -------- --------
   2.000   0.6139   0.04336   0.03526  -0.1335   0.7778   1.0000

 ==============================================================
 Polar  3
  
       XFOIL         Version 6.99
  
 Calculated polar for: xfoil                                           
  
 1 1 Reynolds number fixed          Mach number fixed         
  
 xtrf =   1.000 (top)        1.000 (bottom)  
 Mach =   0.648     Re =     0.100 e 6     Ncrit =   9.000
  
   alpha    CL        CD       CDp       CM     Top_Xtr  Bot_Xtr
  ------ -------- --------- --------- -------- -------- --------
   2.000   0.5964   0.04987   0.04197  -0.1370   0.7364   1.0000

 ==============================================================
 Polar  4
  
       XFOIL         Version 6.99
  
 Calculated polar for: xfoil                                           
  
 1 1 Reynolds number fixed          Mach number fixed         
  
 xtrf =   1.000 (top)        1.000 (bottom)  
 Mach =   0.522     Re =     0.100 e 6     Ncrit =   9.000
  
   alpha    CL        CD       CDp       CM     Top_Xtr  Bot_Xtr
  ------ -------- --------- --------- -------- -------- --------
   2.000   0.5976   0.04482   0.03677  -0.1324   0.7668   1.0000

 ==============================================================
 Polar  5
  
       XFOIL         Version 6.99
  
 Calculated polar for: xfoil                                           
  
 1 1 Reynolds number fixed          Mach number fixed         
  
 xtrf =   1.000 (top)        1.000 (bottom)  
 Mach =   0.372     Re =     0.100 e 6     Ncrit =   9.000
  
   alpha    CL        CD       CDp       CM     Top_Xtr  Bot_Xtr
  ------ -------- --------- --------- -------- -------- --------
   2.000   0.6020   0.04114   0.03301  -0.1300   0.7939   1.0000

 ==============================================================
 Polar  6
  
       XFOIL         Version 6.99
  
 Calculated polar for: xfoil                                           
  
 1 1 Reynolds number fixed          Mach number fixed         
  
 xtrf =   1.000 (top)        1.000 (bottom)  
 Mach =   0.411     Re =     0.100 e 6     Ncrit =   9.000
  
   alpha    CL        CD       CDp       CM     Top_Xtr  Bot_Xtr
  ------ -------- --------- --------- -------- -------- --------
   2.000   0.5964   0.04204   0.03393  -0.1298   0.7871   1.0000

.OPERva   c>  
 Polar accumulation disabled

.OPERv   c>  
 XFOIL   c>  
 XFOIL   c>  
 XFOIL   c>  
 XFOIL   c>  
.OPERv   c>  
 Sonic Cp =     -5.58      Sonic Q/Qinf =     2.782


.OPERv   c>  
 Polar  7 newly created for accumulation
 Airfoil archived with polar: xfoil                                           

Enter  polar save filename  OR  <return> for no file   s>  
 Polar save file will NOT be written

Enter  polar dump filename  OR  <return> for no file   s>  
 Polar dump file will NOT be written

 Polar accumulation enabled

.OPERva   c>  
 Solving BL system ...

 Side 1  free  transition at x/c =  0.7859   67
 Side 2 forced transition at x/c =  1.0000   79

   1   rms: 0.5082E-01   max: -.5554E+00   T at   67  1   RLX: 0.900
       a =  2.000      CL =  0.6072
      Cm = -0.1297     CD =  0.04034   =>   CDf =  0.00803    CDp =  0.03231

 Side 1  free  transition at x/c =  0.8011   68
 Side 2 forced transition at x/c =  1.0000   79

   2   rms: 0.3246E-01   max: 0.2026E+00   D at   68  1
       a =  2.000      CL =  0.5925
      Cm = -0.1283     CD =  0.04108   =>   CDf =  0.00815    CDp =  0.03293

 Side 1  free  transition at x/c =  0.7977   68
 Side 2 forced transition at x/c =  1.0000   79

   3   rms: 0.1426E-02   max: -.9800E-02   D at   92  2
       a =  2.000      CL =  0.5931
      Cm = -0.1283     CD =  0.04068   =>   CDf =  0.00814    CDp =  0.03254

 Side 1  free  transition at x/c =  0.7978   68
 Side 2 forced transition at x/c =  1.0000   79

   4   rms: 0.3915E-04   max: -.1811E-03   D at   87  2
       a =  2.000      CL =  0.5932
      Cm = -0.1283     CD =  0.04068   =>   CDf =  0.00814    CDp =  0.03254
 plradd ia,ip,cpol            1          82  0.29693687    

 Point added to stored polar  7
 Save file unspecified or not available
 Dump file unspecified or not available

.OPERva   c>  
        airfoil                    Re           Mach       Ncrit  XtripT  XtripB     file
       ------------------------  ------------  ----------  -----  ------  ------    -------------------
    1  xfoil                     1.000e5       0.544        9.00   1.000   1.000    xfoil_1_pwrt.dat
    2  xfoil                     1.000e5       0.481        9.00   1.000   1.000    xfoil_2_pwrt.dat
    3  xfoil                     1.000e5       0.648        9.00   1.000   1.000    xfoil_3_pwrt.dat
    4  xfoil                     1.000e5       0.522        9.00   1.000   1.000    xfoil_4_pwrt.dat
    5  xfoil                     1.000e5       0.372        9.00   1.000   1.000    xfoil_5_pwrt.dat
    6  xfoil                     1.000e5       0.411        9.00   1.000   1.000    xfoil_6_pwrt.dat
 >  7  xfoil                     1.000e5       0.332        9.00   1.000   1.000    

Enter index of polar to write (0=all, -1=abort)   i>  
        airfoil                    Re           Mach       Ncrit  XtripT  XtripB     file
       ------------------------  ------------  ----------  -----  ------  ------    -------------------
 >  7  xfoil                     1.000e5       0.332        9.00   1.000   1.000    

Enter polar output filename   s>  
.OPERva   c>  
 ==============================================================
 Polar  1
  
       XFOIL         Version 6.99
  
 Calculated polar for: xfoil                                           
  
 1 1 Reynolds number fixed          Mach number fixed         
  
 xtrf =   1.000 (top)        1.000 (bottom)  
 Mach =   0.544     Re =     0.100 e 6     Ncrit =   9.000
  
   alpha    CL        CD       CDp       CM     Top_Xtr  Bot_Xtr
  ------ -------- --------- --------- -------- -------- --------
   2.000   0.6097   0.04533   0.03728  -0.1346   0.7641   1.0000

 ==============================================================
 Polar  2
  
       XFOIL         Version 6.99
  
 Calculated polar for: xfoil                                           
  
 1 1 Reynolds number fixed          Mach number fixed         
  
 xtrf =   1.000 (top)        1.000 (bottom)  
 Mach =   0.481     Re =     0.100 e 6     Ncrit =   9.000
  
   alpha    CL        CD       CDp       CM     Top_Xtr  Bot_Xtr
  ------ -------- --------- --------- -------- -------- --------
   2.000   0.6139   0.04336   0.03526  -0.1335   0.7778   1.0000

 ==============================================================
 Polar  3
  
       XFOIL         Version 6.99
  
 Calculated polar for: xfoil                                           
  
 1 1 Reynolds number fixed          Mach number fixed         
  
 xtrf =   1.000 (top)        1.000 (bottom)  
 Mach =   0.648     Re =     0.100 e 6     Ncrit =   9.000
  
   alpha    CL        CD       CDp       CM     Top_Xtr  Bot_Xtr
  ------ -------- --------- --------- -------- -------- --------
   2.000   0.5964   0.04987   0.04197  -0.1370   0.7364   1.0000

 ==============================================================
 Polar  4
  
       XFOIL         Version 6.99
  
 Calculated polar for: xfoil                                           
  
 1 1 Reynolds number fixed          Mach number fixed         
  
 xtrf =   1.000 (top)        1.000 (bottom)  
 Mach =   0.522     Re =     0.100 e 6     Ncrit =   9.000
  
   alpha    CL        CD       CDp       CM     Top_Xtr  Bot_Xtr
  ------ -------- --------- --------- -------- -------- --------
   2.000   0.5976   0.04482   0.03677  -0.1324   0.7668   1.0000

 ==============================================================
 Polar  5
  
       XFOIL         Version 6.99
  
 Calculated polar for: xfoil                                           
  
 1 1 Reynolds number fixed          Mach number fixed         
  
 xtrf =   1.000 (top)        1.000 (bottom)  
 Mach =   0.372     Re =     0.100 e 6     Ncrit =   9.000
  
   alpha    CL        CD       CDp       CM     Top_Xtr  Bot_Xtr
  ------ -------- --------- --------- -------- -------- --------
   2.000   0.6020   0.04114   0.03301  -0.1300   0.7939   1.0000

 ==============================================================
 Polar  6
  
       XFOIL         Version 6.99
  
 Calculated polar for: xfoil                                           
  
 1 1 Reynolds number fixed          Mach number fixed         
  
 xtrf =   1.000 (top)        1.000 (bottom)  
 Mach =   0.411     Re =     0.100 e 6     Ncrit =   9.000
  
   alpha    CL        CD       CDp       CM     Top_Xtr  Bot_Xtr
  ------ -------- --------- --------- -------- -------- --------
   2.000   0.5964   0.04204   0.03393  -0.1298   0.7871   1.0000

 ==============================================================
 Polar  7
  
       XFOIL         Version 6.99
  
 Calculated polar for: xfoil                                           
  
 1 1 Reynolds number fixed          Mach number fixed         
  
 xtrf =   1.000 (top)        1.000 (bottom)  
 Mach =   0.332     Re =     0.100 e 6     Ncrit =   9.000
  
   alpha    CL        CD       CDp       CM     Top_Xtr  Bot_Xtr
  ------ -------- --------- --------- -------- -------- --------
   2.000   0.5932   0.04068   0.03254  -0.1283   0.7978   1.0000

.OPERva   c>  
 Polar accumulation disabled

.OPERv   c>  
 XFOIL   c>  
 XFOIL   c>  
 XFOIL   c>  
 XFOIL   c>  
.OPERv   c>  
 Sonic Cp =     -2.77      Sonic Q/Qinf =     2.069


.OPERv   c>  
 Polar  8 newly created for accumulation
 Airfoil archived with polar: xfoil                                           

Enter  polar save filename  OR  <return> for no file   s>  
 Polar save file will NOT be written

Enter  polar dump filename  OR  <return> for no file   s>  
 Polar dump file will NOT be written

 Polar accumulation enabled

.OPERva   c>  
 Solving BL system ...

 Side 1  free  transition at x/c =  0.7997   68
 Side 2 forced transition at x/c =  1.0000   79

   1   rms: 0.6215E-01   max: 0.6837E+00   T at   68  1   RLX: 0.950
       a =  2.000      CL =  0.5916
      Cm = -0.1303     CD =  0.04311   =>   CDf =  0.00827    CDp =  0.03484

 Side 1  free  transition at x/c =  0.7823   67
 Side 2 forced transition at x/c =  1.0000   79

   2   rms: 0.1563E-01   max: -.2594E+00   D at   67  1
       a =  2.000      CL =  0.5931
      Cm = -0.1300     CD =  0.04291   =>   CDf =  0.00810    CDp =  0.03481

 Side 1  free  transition at x/c =  0.7799   67
 Side 2 forced transition at x/c =  1.0000   79

   3   rms: 0.7889E-02   max: -.3689E-01   T at   67  1
       a =  2.000      CL =  0.5982
      Cm = -0.1307     CD =  0.04279   =>   CDf =  0.00809    CDp =  0.03470

 MRCHDU: Convergence failed at  67  side 1    Res =  0.1537E-04
 Side 1  free  transition at x/c =  0.7808   67
 Side 2 forced transition at x/c =  1.0000   79

   4   rms: 0.7227E-03   max: -.2706E-02   D at   88  2
       a =  2.000      CL =  0.5988
      Cm = -0.1308     CD =  0.04283   =>   CDf =  0.00810    CDp =  0.03473

 Side 1  free  transition at x/c =  0.7809   67
 Side 2 forced transition at x/c =  1.0000   79

   5   rms: 0.2970E-04   max: -.1585E-03   T at   67  1
       a =  2.000      CL =  0.5988
      Cm = -0.1308     CD =  0.04283   =>   CDf =  0.00810    CDp =  0.03474
 plradd ia,ip,cpol            1          82  0.29693687    

 Point added to stored polar  8
 Save file unspecified or not available
 Dump file unspecified or not available

.OPERva   c>  
        airfoil                    Re           Mach       Ncrit  XtripT  XtripB     file
       ------------------------  ------------  ----------  -----  ------  ------    -------------------
    1  xfoil                     1.000e5       0.544        9.00   1.000   1.000    xfoil_1_pwrt.dat
    2  xfoil                     1.000e5       0.481        9.00   1.000   1.000    xfoil_2_pwrt.dat
    3  xfoil                     1.000e5       0.648        9.00   1.000   1.000    xfoil_3_pwrt.dat
    4  xfoil                     1.000e5       0.522        9.00   1.000   1.000    xfoil_4_pwrt.dat
    5  xfoil                     1.000e5       0.372        9.00   1.000   1.000    xfoil_5_pwrt.dat
    6  xfoil                     1.000e5       0.411        9.00   1.000   1.000    xfoil_6_pwrt.dat
    7  xfoil                     1.000e5       0.332        9.00   1.000   1.000    xfoil_7_pwrt.dat
 >  8  xfoil                     1.000e5       0.450        9.00   1.000   1.000    

Enter index of polar to write (0=all, -1=abort)   i>  
        airfoil                    Re           Mach       Ncrit  XtripT  XtripB     file
       ------------------------  ------------  ----------  -----  ------  ------    -------------------
 >  8  xfoil                     1.000e5       0.450        9.00   1.000   1.000    

Enter polar output filename   s>  
.OPERva   c>  
 ==============================================================
 Polar  1
  
       XFOIL         Version 6.99
  
 Calculated polar for: xfoil                                           
  
 1 1 Reynolds number fixed          Mach number fixed         
  
 xtrf =   1.000 (top)        1.000 (bottom)  
 Mach =   0.544     Re =     0.100 e 6     Ncrit =   9.000
  
   alpha    CL        CD       CDp       CM     Top_Xtr  Bot_Xtr
  ------ -------- --------- --------- -------- -------- --------
   2.000   0.6097   0.04533   0.03728  -0.1346   0.7641   1.0000

 ==============================================================
 Polar  2
  
       XFOIL         Version 6.99
  
 Calculated polar for: xfoil                                           
  
 1 1 Reynolds number fixed          Mach number fixed         
  
 xtrf =   1.000 (top)        1.000 (bottom)  
 Mach =   0.481     Re =     0.100 e 6     Ncrit =   9.000
  
   alpha    CL        CD       CDp       CM     Top_Xtr  Bot_Xtr
  ------ -------- --------- --------- -------- -------- --------
   2.000   0.6139   0.04336   0.03526  -0.1335   0.7778   1.0000

 ==============================================================
 Polar  3
  
       XFOIL         Version 6.99
  
 Calculated polar for: xfoil                                           
  
 1 1 Reynolds number fixed          Mach number fixed         
  
 xtrf =   1.000 (top)        1.000 (bottom)  
 Mach =   0.648     Re =     0.100 e 6     Ncrit =   9.000
  
   alpha    CL        CD       CDp       CM     Top_Xtr  Bot_Xtr
  ------ -------- --------- --------- -------- -------- --------
   2.000   0.5964   0.04987   0.04197  -0.1370   0.7364   1.0000

 ==============================================================
 Polar  4
  
       XFOIL         Version 6.99
  
 Calculated polar for: xfoil                                           
  
 1 1 Reynolds number fixed          Mach number fixed         
  
 xtrf =   1.000 (top)        1.000 (bottom)  
 Mach =   0.522     Re =     0.100 e 6     Ncrit =   9.000
  
   alpha    CL        CD       CDp       CM     Top_Xtr  Bot_Xtr
  ------ -------- --------- --------- -------- -------- --------
   2.000   0.5976   0.04482   0.03677  -0.1324   0.7668   1.0000

 ==============================================================
 Polar  5
  
       XFOIL         Version 6.99
  
 Calculated polar for: xfoil                                           
  
 1 1 Reynolds number fixed          Mach number fixed         
  
 xtrf =   1.000 (top)        1.000 (bottom)  
 Mach =   0.372     Re =     0.100 e 6     Ncrit =   9.000
  
   alpha    CL        CD       CDp       CM     Top_Xtr  Bot_Xtr
  ------ -------- --------- --------- -------- -------- --------
   2.000   0.6020   0.04114   0.03301  -0.1300   0.7939   1.0000

 ==============================================================
 Polar  6
  
       XFOIL         Version 6.99
  
 Calculated polar for: xfoil                                           
  
 1 1 Reynolds number fixed          Mach number fixed         
  
 xtrf =   1.000 (top)        1.000 (bottom)  
 Mach =   0.411     Re =     0.100 e 6     Ncrit =   9.000
  
   alpha    CL        CD       CDp       CM     Top_Xtr  Bot_Xtr
  ------ -------- --------- --------- -------- -------- --------
   2.000   0.5964   0.04204   0.03393  -0.1298   0.7871   1.0000

 ==============================================================
 Polar  7
  
       XFOIL         Version 6.99
  
 Calculated polar for: xfoil                                           
  
 1 1 Reynolds number fixed          Mach number fixed         
  
 xtrf =   1.000 (top)        1.000 (bottom)  
 Mach =   0.332     Re =     0.100 e 6     Ncrit =   9.000
  
   alpha    CL        CD       CDp       CM     Top_Xtr  Bot_Xtr
  ------ -------- --------- --------- -------- -------- --------
   2.000   0.5932   0.04068   0.03254  -0.1283   0.7978   1.0000

 ==============================================================
 Polar  8
  
       XFOIL         Version 6.99
  
 Calculated polar for: xfoil                                           
  
 1 1 Reynolds number fixed          Mach number fixed         
  
 xtrf =   1.000 (top)        1.000 (bottom)  
 Mach =   0.450     Re =     0.100 e 6     Ncrit =   9.000
  
   alpha    CL        CD       CDp       CM     Top_Xtr  Bot_Xtr
  ------ -------- --------- --------- -------- -------- --------
   2.000   0.5988   0.04283   0.03474  -0.1308   0.7809   1.0000

.OPERva   c>  
 Polar accumulation disabled

.OPERv   c>  
 XFOIL   c>  
 XFOIL   c>  
 XFOIL   c>  
 XFOIL   c>  
.OPERv   c>  
 Sonic Cp =     -3.09      Sonic Q/Qinf =     2.163


.OPERv   c>  
 Polar  9 newly created for accumulation
 Airfoil archived with polar: xfoil                                           

Enter  polar save filename  OR  <return> for no file   s>  
 Polar save file will NOT be written

Enter  polar dump filename  OR  <return> for no file   s>  
 Polar dump file will NOT be written

 Polar accumulation enabled

.OPERva   c>  
 Solving BL system ...

 Side 1  free  transition at x/c =  0.7805   67
 Side 2 forced transition at x/c =  1.0000   79

   1   rms: 0.9382E-02   max: -.1030E+00   T at   67  1   RLX: 0.986
       a =  2.000      CL =  0.5914
      Cm = -0.1295     CD =  0.04251   =>   CDf =  0.00807    CDp =  0.03444

 Side 1  free  transition at x/c =  0.7831   67
 Side 2 forced transition at x/c =  1.0000   79

   2   rms: 0.3795E-02   max: -.1514E-01   D at   68  1
       a =  2.000      CL =  0.5939
      Cm = -0.1298     CD =  0.04245   =>   CDf =  0.00810    CDp =  0.03435

 Side 1  free  transition at x/c =  0.7836   67
 Side 2 forced transition at x/c =  1.0000   79

   3   rms: 0.2570E-03   max: -.1021E-02   D at   88  2
       a =  2.000      CL =  0.5942
      Cm = -0.1298     CD =  0.04247   =>   CDf =  0.00810    CDp =  0.03437

 Side 1  free  transition at x/c =  0.7836   67
 Side 2 forced transition at x/c =  1.0000   79

   4   rms: 0.9122E-05   max: 0.6565E-04   C at   79  2
       a =  2.000      CL =  0.5942
      Cm = -0.1298     CD =  0.04247   =>   CDf =  0.00810    CDp =  0.03437
 plradd ia,ip,cpol            1          82  0.29693687    

 Point added to stored polar  9
 Save file unspecified or not available
 Dump file unspecified or not available

.OPERva   c>  
        airfoil                    Re           Mach       Ncrit  XtripT  XtripB     file
       ------------------------  ------------  ----------  -----  ------  ------    -------------------
    1  xfoil                     1.000e5       0.544        9.00   1.000   1.000    xfoil_1_pwrt.dat
    2  xfoil                     1.000e5       0.481        9.00   1.000   1.000    xfoil_2_pwrt.dat
    3  xfoil                     1.000e5       0.648        9.00   1.000   1.000    xfoil_3_pwrt.dat
    4  xfoil                     1.000e5       0.522        9.00   1.000   1.000    xfoil_4_pwrt.dat
    5  xfoil                     1.000e5       0.372        9.00   1.000   1.000    xfoil_5_pwrt.dat
    6  xfoil                     1.000e5       0.411        9.00   1.000   1.000    xfoil_6_pwrt.dat
    7  xfoil                     1.000e5       0.332        9.00   1.000   1.000    xfoil_7_pwrt.dat
    8  xfoil                     1.000e5       0.450        9.00   1.000   1.000    xfoil_8_pwrt.dat
 >  9  xfoil                     1.000e5       0.430        9.00   1.000   1.000    

Enter index of polar to write (0=all, -1=abort)   i>  
        airfoil                    Re           Mach       Ncrit  XtripT  XtripB     file
       ------------------------  ------------  ----------  -----  ------  ------    -------------------
 >  9  xfoil                     1.000e5       0.430        9.00   1.000   1.000    

Enter polar output filename   s>  
.OPERva   c>  
 ==============================================================
 Polar  1
  
       XFOIL         Version 6.99
  
 Calculated polar for: xfoil                                           
  
 1 1 Reynolds number fixed          Mach number fixed         
  
 xtrf =   1.000 (top)        1.000 (bottom)  
 Mach =   0.544     Re =     0.100 e 6     Ncrit =   9.000
  
   alpha    CL        CD       CDp       CM     Top_Xtr  Bot_Xtr
  ------ -------- --------- --------- -------- -------- --------
   2.000   0.6097   0.04533   0.03728  -0.1346   0.7641   1.0000

 ==============================================================
 Polar  2
  
       XFOIL         Version 6.99
  
 Calculated polar for: xfoil                                           
  
 1 1 Reynolds number fixed          Mach number fixed         
  
 xtrf =   1.000 (top)        1.000 (bottom)  
 Mach =   0.481     Re =     0.100 e 6     Ncrit =   9.000
  
   alpha    CL        CD       CDp       CM     Top_Xtr  Bot_Xtr
  ------ -------- --------- --------- -------- -------- --------
   2.000   0.6139   0.04336   0.03526  -0.1335   0.7778   1.0000

 ==============================================================
 Polar  3
  
       XFOIL         Version 6.99
  
 Calculated polar for: xfoil                                           
  
 1 1 Reynolds number fixed          Mach number fixed         
  
 xtrf =   1.000 (top)        1.000 (bottom)  
 Mach =   0.648     Re =     0.100 e 6     Ncrit =   9.000
  
   alpha    CL        CD       CDp       CM     Top_Xtr  Bot_Xtr
  ------ -------- --------- --------- -------- -------- --------
   2.000   0.5964   0.04987   0.04197  -0.1370   0.7364   1.0000

 ==============================================================
 Polar  4
  
       XFOIL         Version 6.99
  
 Calculated polar for: xfoil                                           
  
 1 1 Reynolds number fixed          Mach number fixed         
  
 xtrf =   1.000 (top)        1.000 (bottom)  
 Mach =   0.522     Re =     0.100 e 6     Ncrit =   9.000
  
   alpha    CL        CD       CDp       CM     Top_Xtr  Bot_Xtr
  ------ -------- --------- --------- -------- -------- --------
   2.000   0.5976   0.04482   0.03677  -0.1324   0.7668   1.0000

 ==============================================================
 Polar  5
  
       XFOIL         Version 6.99
  
 Calculated polar for: xfoil                                           
  
 1 1 Reynolds number fixed          Mach number fixed         
  
 xtrf =   1.000 (top)        1.000 (bottom)  
 Mach =   0.372     Re =     0.100 e 6     Ncrit =   9.000
  
   alpha    CL        CD       CDp       CM     Top_Xtr  Bot_Xtr
  ------ -------- --------- --------- -------- -------- --------
   2.000   0.6020   0.04114   0.03301  -0.1300   0.7939   1.0000

 ==============================================================
 Polar  6
  
       XFOIL         Version 6.99
  
 Calculated polar for: xfoil                                           
  
 1 1 Reynolds number fixed          Mach number fixed         
  
 xtrf =   1.000 (top)        1.000 (bottom)  
 Mach =   0.411     Re =     0.100 e 6     Ncrit =   9.000
  
   alpha    CL        CD       CDp       CM     Top_Xtr  Bot_Xtr
  ------ -------- --------- --------- -------- -------- --------
   2.000   0.5964   0.04204   0.03393  -0.1298   0.7871   1.0000

 ==============================================================
 Polar  7
  
       XFOIL         Version 6.99
  
 Calculated polar for: xfoil                                           
  
 1 1 Reynolds number fixed          Mach number fixed         
  
 xtrf =   1.000 (top)        1.000 (bottom)  
 Mach =   0.332     Re =     0.100 e 6     Ncrit =   9.000
  
   alpha    CL        CD       CDp       CM     Top_Xtr  Bot_Xtr
  ------ -------- --------- --------- -------- -------- --------
   2.000   0.5932   0.04068   0.03254  -0.1283   0.7978   1.0000

 ==============================================================
 Polar  8
  
       XFOIL         Version 6.99
  
 Calculated polar for: xfoil                                           
  
 1 1 Reynolds number fixed          Mach number fixed         
  
 xtrf =   1.000 (top)        1.000 (bottom)  
 Mach =   0.450     Re =     0.100 e 6     Ncrit =   9.000
  
   alpha    CL        CD       CDp       CM     Top_Xtr  Bot_Xtr
  ------ -------- --------- --------- -------- -------- --------
   2.000   0.5988   0.04283   0.03474  -0.1308   0.7809   1.0000

 ==============================================================
 Polar  9
  
       XFOIL         Version 6.99
  
 Calculated polar for: xfoil                                           
  
 1 1 Reynolds number fixed          Mach number fixed         
  
 xtrf =   1.000 (top)        1.000 (bottom)  
 Mach =   0.430     Re =     0.100 e 6     Ncrit =   9.000
  
   alpha    CL        CD       CDp       CM     Top_Xtr  Bot_Xtr
  ------ -------- --------- --------- -------- -------- --------
   2.000   0.5942   0.04247   0.03437  -0.1298   0.7836   1.0000

.OPERva   c>  
 Polar accumulation disabled

.OPERv   c>  
 XFOIL   c>  
 XFOIL   c>  
 XFOIL   c>  
 XFOIL   c>  
.OPERv   c>  
 Sonic Cp =     -1.48      Sonic Q/Qinf =     1.645


.OPERv   c>  
 Polar 10 newly created for accumulation
 Airfoil archived with polar: xfoil                                           

Enter  polar save filename  OR  <return> for no file   s>  
 Polar save file will NOT be written

Enter  polar dump filename  OR  <return> for no file   s>  
 Polar dump file will NOT be written

 Polar accumulation enabled

.OPERva   c>  
 Solving BL system ...

 Side 1  free  transition at x/c =  0.7875   67
 Side 2 forced transition at x/c =  1.0000   79

   1   rms: 0.1252E+00   max: 0.1239E+01   T at   67  1   RLX: 0.714
       a =  2.000      CL =  0.5963
      Cm = -0.1373     CD =  0.04605   =>   CDf =  0.00835    CDp =  0.03770

 Side 1  free  transition at x/c =  0.7636   65
 Side 2 forced transition at x/c =  1.0000   79
 idif Ue xi dudx           1  0.35597742      1.91342831E-03   186.04169    
 Uenew xinew           2  6.21424690E-02  3.34024429E-04

   2   rms: 0.1732E+00   max: 0.1755E+01   T at   65  1   RLX: 0.452
       a =  2.000      CL =  0.5170
      Cm = -0.1260     CD =  0.04826   =>   CDf =  0.00824    CDp =  0.04003

 Side 1  free  transition at x/c =  0.7496   63
 Side 2 forced transition at x/c =  1.0000   80

   3   rms: 0.1312E+00   max: -.4121E+00   D at   95  2   RLX: 0.847
       a =  2.000      CL =  0.6142
      Cm = -0.1354     CD =  0.04887   =>   CDf =  0.00780    CDp =  0.04107

 Side 1  free  transition at x/c =  0.7612   65
 Side 2 forced transition at x/c =  1.0000   79

   4   rms: 0.7103E-01   max: 0.4793E+00   D at   65  1
       a =  2.000      CL =  0.6010
      Cm = -0.1346     CD =  0.04790   =>   CDf =  0.00806    CDp =  0.03984

 Side 1  free  transition at x/c =  0.7561   65
 Side 2 forced transition at x/c =  1.0000   79

   5   rms: 0.1536E-01   max: 0.7071E-01   D at   89  2
       a =  2.000      CL =  0.5899
      Cm = -0.1330     CD =  0.04687   =>   CDf =  0.00801    CDp =  0.03886

 Side 1  free  transition at x/c =  0.7544   65
 Side 2 forced transition at x/c =  1.0000   79

   6   rms: 0.1268E-02   max: -.6931E-02   D at   93  2
       a =  2.000      CL =  0.5906
      Cm = -0.1331     CD =  0.04668   =>   CDf =  0.00799    CDp =  0.03869

 Side 1  free  transition at x/c =  0.7546   65
 Side 2 forced transition at x/c =  1.0000   79

   7   rms: 0.6384E-04   max: -.3348E-03   D at   90  2
       a =  2.000      CL =  0.5907
      Cm = -0.1331     CD =  0.04669   =>   CDf =  0.00799    CDp =  0.03870
 plradd ia,ip,cpol            1          82  0.29693687    

 Point added to stored polar 10
 Save file unspecified or not available
 Dump file unspecified or not available

.OPERva   c>  
        airfoil                    Re           Mach       Ncrit  XtripT  XtripB     file
       ------------------------  ------------  ----------  -----  ------  ------    -------------------
    1  xfoil                     1.000e5       0.544        9.00   1.000   1.000    xfoil_1_pwrt.dat
    2  xfoil                     1.000e5       0.481        9.00   1.000   1.000    xfoil_2_pwrt.dat
    3  xfoil                     1.000e5       0.648        9.00   1.000   1.000    xfoil_3_pwrt.dat
    4  xfoil                     1.000e5       0.522        9.00   1.000   1.000    xfoil_4_pwrt.dat
    5  xfoil                     1.000e5       0.372        9.00   1.000   1.000    xfoil_5_pwrt.dat
    6  xfoil                     1.000e5       0.411        9.00   1.000   1.000    xfoil_6_pwrt.dat
    7  xfoil                     1.000e5       0.332        9.00   1.000   1.000    xfoil_7_pwrt.dat
    8  xfoil                     1.000e5       0.450        9.00   1.000   1.000    xfoil_8_pwrt.dat
    9  xfoil                     1.000e5       0.430        9.00   1.000   1.000    xfoil_9_pwrt.dat
 > 10  xfoil                     1.000e5       0.573        9.00   1.000   1.000    

Enter index of polar to write (0=all, -1=abort)   i>  
        airfoil                    Re           Mach       Ncrit  XtripT  XtripB     file
       ------------------------  ------------  ----------  -----  ------  ------    -------------------
 > 10  xfoil                     1.000e5       0.573        9.00   1.000   1.000    

Enter polar output filename   s>  
.OPERva   c>  
 ==============================================================
 Polar  1
  
       XFOIL         Version 6.99
  
 Calculated polar for: xfoil                                           
  
 1 1 Reynolds number fixed          Mach number fixed         
  
 xtrf =   1.000 (top)        1.000 (bottom)  
 Mach =   0.544     Re =     0.100 e 6     Ncrit =   9.000
  
   alpha    CL        CD       CDp       CM     Top_Xtr  Bot_Xtr
  ------ -------- --------- --------- -------- -------- --------
   2.000   0.6097   0.04533   0.03728  -0.1346   0.7641   1.0000

 ==============================================================
 Polar  2
  
       XFOIL         Version 6.99
  
 Calculated polar for: xfoil                                           
  
 1 1 Reynolds number fixed          Mach number fixed         
  
 xtrf =   1.000 (top)        1.000 (bottom)  
 Mach =   0.481     Re =     0.100 e 6     Ncrit =   9.000
  
   alpha    CL        CD       CDp       CM     Top_Xtr  Bot_Xtr
  ------ -------- --------- --------- -------- -------- --------
   2.000   0.6139   0.04336   0.03526  -0.1335   0.7778   1.0000

 ==============================================================
 Polar  3
  
       XFOIL         Version 6.99
  
 Calculated polar for: xfoil                                           
  
 1 1 Reynolds number fixed          Mach number fixed         
  
 xtrf =   1.000 (top)        1.000 (bottom)  
 Mach =   0.648     Re =     0.100 e 6     Ncrit =   9.000
  
   alpha    CL        CD       CDp       CM     Top_Xtr  Bot_Xtr
  ------ -------- --------- --------- -------- -------- --------
   2.000   0.5964   0.04987   0.04197  -0.1370   0.7364   1.0000

 ==============================================================
 Polar  4
  
       XFOIL         Version 6.99
  
 Calculated polar for: xfoil                                           
  
 1 1 Reynolds number fixed          Mach number fixed         
  
 xtrf =   1.000 (top)        1.000 (bottom)  
 Mach =   0.522     Re =     0.100 e 6     Ncrit =   9.000
  
   alpha    CL        CD       CDp       CM     Top_Xtr  Bot_Xtr
  ------ -------- --------- --------- -------- -------- --------
   2.000   0.5976   0.04482   0.03677  -0.1324   0.7668   1.0000

 ==============================================================
 Polar  5
  
       XFOIL         Version 6.99
  
 Calculated polar for: xfoil                                           
  
 1 1 Reynolds number fixed          Mach number fixed         
  
 xtrf =   1.000 (top)        1.000 (bottom)  
 Mach =   0.372     Re =     0.100 e 6     Ncrit =   9.000
  
   alpha    CL        CD       CDp       CM     Top_Xtr  Bot_Xtr
  ------ -------- --------- --------- -------- -------- --------
   2.000   0.6020   0.04114   0.03301  -0.1300   0.7939   1.0000

 ==============================================================
 Polar  6
  
       XFOIL         Version 6.99
  
 Calculated polar for: xfoil                                           
  
 1 1 Reynolds number fixed          Mach number fixed         
  
 xtrf =   1.000 (top)        1.000 (bottom)  
 Mach =   0.411     Re =     0.100 e 6     Ncrit =   9.000
  
   alpha    CL        CD       CDp       CM     Top_Xtr  Bot_Xtr
  ------ -------- --------- --------- -------- -------- --------
   2.000   0.5964   0.04204   0.03393  -0.1298   0.7871   1.0000

 ==============================================================
 Polar  7
  
       XFOIL         Version 6.99
  
 Calculated polar for: xfoil                                           
  
 1 1 Reynolds number fixed          Mach number fixed         
  
 xtrf =   1.000 (top)        1.000 (bottom)  
 Mach =   0.332     Re =     0.100 e 6     Ncrit =   9.000
  
   alpha    CL        CD       CDp       CM     Top_Xtr  Bot_Xtr
  ------ -------- --------- --------- -------- -------- --------
   2.000   0.5932   0.04068   0.03254  -0.1283   0.7978   1.0000

 ==============================================================
 Polar  8
  
       XFOIL         Version 6.99
  
 Calculated polar for: xfoil                                           
  
 1 1 Reynolds number fixed          Mach number fixed         
  
 xtrf =   1.000 (top)        1.000 (bottom)  
 Mach =   0.450     Re =     0.100 e 6     Ncrit =   9.000
  
   alpha    CL        CD       CDp       CM     Top_Xtr  Bot_Xtr
  ------ -------- --------- --------- -------- -------- --------
   2.000   0.5988   0.04283   0.03474  -0.1308   0.7809   1.0000

 ==============================================================
 Polar  9
  
       XFOIL         Version 6.99
  
 Calculated polar for: xfoil                                           
  
 1 1 Reynolds number fixed          Mach number fixed         
  
 xtrf =   1.000 (top)        1.000 (bottom)  
 Mach =   0.430     Re =     0.100 e 6     Ncrit =   9.000
  
   alpha    CL        CD       CDp       CM     Top_Xtr  Bot_Xtr
  ------ -------- --------- --------- -------- -------- --------
   2.000   0.5942   0.04247   0.03437  -0.1298   0.7836   1.0000

 ==============================================================
 Polar 10
  
       XFOIL         Version 6.99
  
 Calculated polar for: xfoil                                           
  
 1 1 Reynolds number fixed          Mach number fixed         
  
 xtrf =   1.000 (top)        1.000 (bottom)  
 Mach =   0.573     Re =     0.100 e 6     Ncrit =   9.000
  
   alpha    CL        CD       CDp       CM     Top_Xtr  Bot_Xtr
  ------ -------- --------- --------- -------- -------- --------
   2.000   0.5907   0.04669   0.03870  -0.1331   0.7546   1.0000

.OPERva   c>  
 Polar accumulation disabled

.OPERv   c>  
 XFOIL   c>  
 XFOIL   c>   PLIS command not recognized.  Type a "?" for list

 XFOIL   c>  
 XFOIL   c>  